8

 C                 -3.60005207   -1.04501606   -0.09427063
 H                 -3.24339765   -2.05382606   -0.09427063
 H                 -3.24337923   -0.54061787   -0.96792214
 H                 -4.67005207   -1.04500288   -0.09427063
 C                 -3.08670985   -0.31905979    1.16313434
 O                 -2.37898072   -0.73025924    2.08160932
 O                 -3.50693641    0.96992056    1.22100740
 H                 -3.16987982    1.40370445    2.02187272
